/*--------------------------------*- C++ -*----------------------------------*\
| =========                 |                                                 |
| \\      /  F ield         | OpenFOAM: The Open Source CFD Toolbox           |
|  \\    /   O peration     | Website:  https://openfoam.org                  |
|   \\  /    A nd           | Version:  9                                     |
|    \\/     M anipulation  |                                                 |
\*---------------------------------------------------------------------------*/
FoamFile
{
    format      ascii;
    class       dictionary;
    object      fvSchemes;
}
// * * * * * * * * * * * * * * * * * * * * * * * * * * * * * * * * * * * * * //

ddtSchemes
{
    default         Euler;
}

gradSchemes
{
    default         Gauss linear;
    grad(p)         Gauss linear;
    grad(U)         Gauss linear;
}

divSchemes
{
    default                  none;
    div(tau)                 Gauss linear;
    div(grad(U))             Gauss linear;
    div(phi,theta)           GaussDefCmpw cubista;
    div(phi,tau)             GaussDefCmpw cubista;
    div(phi,U)               GaussDefCmpw cubista; 
    div(phi,C)               GaussDefCmpw cubista;
    div(phi,sigma)           GaussDefCmpw cubista;
}

laplacianSchemes
{
    default                  Gauss linear corrected;
}

interpolationSchemes
{
    default           linear;
      
}

snGradSchemes
{
    default         corrected;
}

fluxRequired
{
    default         no;
    p;
}

// ************************************************************************* //
