/*--------------------------------*- C++ -*----------------------------------*\
| =========                 |                                                 |
| \\      /  F ield         | OpenFOAM: The Open Source CFD Toolbox           |
|  \\    /   O peration     | Website:  https://openfoam.org                  |
|   \\  /    A nd           | Version:  9                                     |
|    \\/     M anipulation  |                                                 |
\*---------------------------------------------------------------------------*/
FoamFile
{
    format      ascii;
    class       volVectorField;
    object      U;
}
// * * * * * * * * * * * * * * * * * * * * * * * * * * * * * * * * * * * * * //

dimensions      [0 1 -1 0 0 0 0];

internalField   uniform (0 0 0);

boundaryField
{
    inlet
    {
	type            zeroGradient;
    }
    
    outlet
    {
	type            zeroGradient;      
    }
    
    symmetry
    {
	type            slipSigmaDependent;
	elecMobility0   7.08e-09;
	sigma0          0.0341;
	m               -0.3;
	value           uniform (0 0 0);   
    }
    
    walls
    {
	type            slipSigmaDependent;
	elecMobility0   7.08e-09;
	sigma0          0.0341;
	m               -0.3;
	value           uniform (0 0 0);    
    }
    

    frontAndBack
    {
	type            empty;   
    }
}

// ************************************************************************* //
