/*--------------------------------*- C++ -*----------------------------------*\
| =========                 |                                                 |
| \\      /  F ield         | OpenFOAM: The Open Source CFD Toolbox           |
|  \\    /   O peration     | Website:  https://openfoam.org                  |
|   \\  /    A nd           | Version:  9                                     |
|    \\/     M anipulation  |                                                 |
\*---------------------------------------------------------------------------*/
FoamFile
{
    format      ascii;
    class       volScalarField;
    object      C;
}
// * * * * * * * * * * * * * * * * * * * * * * * * * * * * * * * * * * * * * //

dimensions      [0 0 0 0 0 0 0];

internalField   uniform 0;

boundaryField
{
    inletNorth
    {
	type            fixedValue;
	value           uniform 0;
    }
    
    inletSouth
    {
	type            fixedValue;
	value           uniform 1;
    }
    
       
    botwalls
    {
	
	type            zeroGradient;       
    }
    
    topwalls
    {
	
	type            zeroGradient;       
    }
    frontAndBack
    {
	type            empty;       
    }

    outlet
    {
	type            zeroGradient;         
    }     
}

// ************************************************************************* //
